Circuit: * F:\Academics\BITS\Year 4\4 - Semester 1\Analog and Digital VLSI Design\Assignments\Analog\2020\Modified design for the same problem - Complete version\PSRR.asc

Ignoring BSIM parameter XL
Ignoring BSIM parameter XW
Ignoring BSIM parameter XL
Ignoring BSIM parameter XW
Warning: Pd = 0 is less than W.
Warning: Ps = 0 is less than W.
Warning: Pd = 0 is less than W.
Warning: Ps = 0 is less than W.
Warning: Pd = 0 is less than W.
Warning: Ps = 0 is less than W.
Warning: Pd = 0 is less than W.
Warning: Ps = 0 is less than W.
Warning: Pd = 0 is less than W.
Warning: Ps = 0 is less than W.
Warning: Pd = 0 is less than W.
Warning: Ps = 0 is less than W.
Direct Newton iteration failed to find .op point.  (Use ".option noopiter" to skip.)
Starting Gmin stepping
Gmin = 10
Gmin = 1.07374
Gmin = 0.115292
Gmin = 0.0123794
Gmin = 0.00132923
Gmin = 0.000142725
Gmin = 1.5325e-005
vernier = 0.5
vernier = 0.25
Gmin = 3.21388e-006
vernier = 0.125
vernier = 0.166667
Gmin = 2.34042e-006
vernier = 0.222222
vernier = 0.296296
Gmin = 1.3517e-006
vernier = 0.395061
Gmin = 5.77185e-007
vernier = 0.526748
vernier = 0.702331
Gmin = 1.43861e-007
vernier = 0.936441
vernier = 1
Gmin = 1.88579e-008
Gmin = 2.02486e-009
Gmin = 2.17417e-010
Gmin = 2.3345e-011
Gmin = 2.50665e-012
Gmin = 2.69149e-013
Gmin = 0
Gmin stepping succeeded in finding the operating point.

.step temp=0°C
.step temp=27°C
.step temp=100°C

Date: Wed Oct 20 22:27:30 2021
Total elapsed time: 1.309 seconds.

tnom = 27
temp = 100
method = trap
totiter = 503
traniter = 0
tranpoints = 0
accept = 0
rejected = 0
matrix size = 15
fillins = 10
solver = Normal
Matrix Compiler1:     147 opcodes
Matrix Compiler2: off  [0.2]/0.3/0.3

